BEGIN Options
  SAVE_FLOWS
  LIST       gwt.lst
END Options

BEGIN Packages
  DIS6       gwt.dis
  IC6        gwt.ic
  NPF6       gwt.npf
  STO6       gwt.sto
  OC6        gwt.oc
  RCH6       gwt.rch
  RIV6       gwt.riv       'RIV-1'           
  CHD6       gwt.chd       'CHD-1'
  CHD6       gwt.lake.chd  'LAK-1'
END Packages

