# Simulation name file for MODFLOW 6 prepared by MF5to6

BEGIN Options
END Options

BEGIN Timing
  TDIS6  gwt.tdis
END Timing

BEGIN Models
  GWF6  gwt.nam  gwt
END Models

BEGIN Exchanges
END Exchanges

BEGIN SOLUTIONGROUP 1
  MXITER  1
  IMS6  gwt.ims  gwt
END SOLUTIONGROUP
