BEGIN OPTIONS
END OPTIONS

BEGIN DIMENSIONS
  NPER 1
END DIMENSIONS

BEGIN PERIODDATA
  1. 1 1.0
END PERIODDATA
