BEGIN OPTIONS
END OPTIONS

BEGIN GRIDDATA
  STRT
    CONSTANT 320.
END GRIDDATA
