BEGIN OPTIONS
  READASARRAYS
END OPTIONS

BEGIN PERIOD 1
  RECHARGE
    CONSTANT 0.005
END PERIOD
