BEGIN OPTIONS
  BUDGET FILEOUT ex01.cbc
  HEAD FILEOUT ex01.hds
END OPTIONS

BEGIN PERIOD 1
  SAVE BUDGET ALL
  SAVE HEAD ALL
END PERIOD
