BEGIN OPTIONS
END OPTIONS

BEGIN DIMENSIONS
  MAXBOUND 1
END DIMENSIONS

BEGIN PERIOD 1
  3 11 10 -150000.
END PERIOD
