BEGIN OPTIONS
END OPTIONS

BEGIN TIMING
  TDIS6 ex01.tdis
END TIMING

BEGIN MODELS
  GWF6 ex01.nam EX01
END MODELS

BEGIN EXCHANGES
END EXCHANGES

BEGIN SOLUTIONGROUP 1
  IMS6 ex01.ims EX02
END SOLUTIONGROUP
